/*--------------------------------*- C++ -*----------------------------------*\
  =========                 |
  \\      /  F ield         | OpenFOAM: The Open Source CFD Toolbox
   \\    /   O peration     | Website:  https://openfoam.org
    \\  /    A nd           | Version:  6
     \\/     M anipulation  |
\*---------------------------------------------------------------------------*/
FoamFile
{
    version     2.0;
    format      ascii;
    class       volVectorField;
    object      U;
}
// * * * * * * * * * * * * * * * * * * * * * * * * * * * * * * * * * * * * * //

dimensions      [0 1 -1 0 0 0 0];

internalField   uniform (0 0 0);

boundaryField
{
    
    inlet_pipe
    {
        type            decayingTurbulenceInflowGenerator;
        direction       1;
        LField          uniform 0.002;
        RField          uniform (0.0031 0 0 0.0031 0 0.0031); // 3% TurbInt
        refField        uniform (0 0 1.85);
        value           uniform (0 0 1.85);
    }

    outlet
    {
        type            pressureInletOutletVelocity;
        value           uniform (0 0 0);
    }

    "wall.*"
    {
        type            fixedValue;
        value           uniform (0 0 0);
    }

    inlet_FO
    {
        type                turbulentInlet;
        fluctuationScale    (0.03 0.01 0.01); // 3% TurbInt in Y, 1% in X and Z
        referenceField      uniform (10.56 0 0);
        alpha               0.1;
    }

}

// ************************************************************************* //
