/*--------------------------------*- C++ -*----------------------------------*\
| =========                 |                                                 |
| \\      /  F ield         | OpenFOAM: The Open Source CFD Toolbox           |
|  \\    /   O peration     | Version:  6.x                                   |
|   \\  /    A nd           | Web:      www.OpenFOAM.org                      |
|    \\/     M anipulation  |                                                 |
\*---------------------------------------------------------------------------*/
FoamFile
{
    version     2.0;
    format      ascii;
    class       dictionary;
    object      blockMeshDict;
}

// * * * * * * * * * * * * * * * * * * * * * * * * * * * * * * * * * * * * * //

convertToMeters 0.001;

vertices
(
    (-32 -18 -83) //0
    ( 36 -18 -83) //1
    ( 36  18 -83) //2
    (-32  18 -83) //3
    (-32 -18  140) //4
    ( 36 -18  140) //5
    ( 36  18  140) //6
    (-32  18  140) //7
    // X: 68
    // Y: 36
    // Z: 223
);

blocks
(
    //hex (0 1 2 3 4 5 6 7) (400 40 40) simpleGrading (1 1 1) // Cells ~2M
    //hex (0 1 2 3 4 5 6 7) (440 44 44) simpleGrading (1 1 1) // Cells ~3M
    //hex (0 1 2 3 4 5 6 7) (500 50 50) simpleGrading (1 1 1) // Cells ~4M
    //hex (0 1 2 3 4 5 6 7) (480 48 48) simpleGrading (1 1 1)
    //hex (0 1 2 3 4 5 6 7) (240 24 24) simpleGrading (1 1 1)
    hex (0 1 2 3 4 5 6 7) (68 36 223) simpleGrading (1 1 1)
);

edges
(
);

boundary
(
    defaultFaces
    {
       type patch;
       faces
        (
            (1 2 6 5)
            (0 4 7 3)
            (4 5 6 7)
            (0 3 2 1)
            (0 1 5 4)
            (2 3 7 6)
        );
    }
);

mergePatchPairs
(
);

// ************************************************************************* //
