/*--------------------------------*- C++ -*----------------------------------*\
  =========                 |
  \\      /  F ield         | OpenFOAM: The Open Source CFD Toolbox
   \\    /   O peration     | Website:  https://openfoam.org
    \\  /    A nd           | Version:  6
     \\/     M anipulation  |
\*---------------------------------------------------------------------------*/
FoamFile
{
    version     2.0;
    format      ascii;
    class       dictionary;
    location    "system";
    object      fvSolution;
}
// * * * * * * * * * * * * * * * * * * * * * * * * * * * * * * * * * * * * * //

solvers
{
    p
    {
        solver                      PCG;
        preconditioner
        {
            preconditioner          GAMG;
            smoother                GaussSeidel;
            tolerance               1e-5;
            relTol                  0.03;
            nVcycles                2;
            nPreSweeps              0;
            nPostSweeps             2;
            nFinestSweeps           2;
            cacheAgglomeration      false;
            nCellsInCoarsestLevel   300;
            agglomerator            faceAreaPair;
            mergeLevels             1;
        };
        tolerance              1e-6;
        relTol                 0.005;
        maxIter                10;
    }

    pFinal
    {
        $p;
        preconditioner
        {
            relTol                  0.01;
        };
        tolerance              1e-8;
        relTol                 0.0;
        maxIter                30;
    }

    U
    {
        solver          smoothSolver;
        smoother        GaussSeidel;
        tolerance       1e-7;
        relTol          0;
    }

    UFinal
    {
        $U;
        tolerance       1e-08;
        relTol          0;
    }

    s
    {
        solver          smoothSolver;
        smoother        GaussSeidel;
        tolerance       1e-08;
        relTol          0;
        minIter         1;
    }
}

PIMPLE
{
    momentumPredictor          yes;
    nCorrectors                3;
    nNonOrthogonalCorrectors   0;
    nOuterCorrectors           1;		// Same behaviour as PISO
}

// ************************************************************************* //
